obj01
  RxDock  02182319223D
librxdock.so/0.1.0
 27 29  0  0  0  0  0  0  0  0999 V2000
  191.2886  174.0670   13.6177 P   0  0  0  0  0  0
  193.2384  175.8219   12.3447 P   0  0  0  0  0  0
  192.6771  173.1054   15.6637 C   0  0  0  0  0  0
  191.6614  172.9058   14.6231 O   0  0  0  0  0  0
  193.0481  171.9018   16.5799 C   0  0  0  0  0  0
  192.2198  171.8866   17.7597 O   0  0  0  0  0  0
  192.8826  170.4634   16.0300 C   0  0  0  0  0  0
  194.0061  170.1685   15.2082 O   0  0  0  0  0  0
  192.7914  169.6478   17.3186 C   0  0  0  0  0  0
  194.0937  169.3629   17.8838 O   0  0  0  0  0  0
  192.0084  170.5588   18.2636 C   0  0  0  0  0  0
  187.2488  172.5197   17.5121 N   0  0  0  0  0  0
  190.9484  175.1971   14.5339 O   0  5  0  0  0  0
  193.5904  176.4863   13.5985 O   0  0  0  0  0  0
  188.4855  173.1444   17.4245 C   0  0  0  0  0  0
  190.2106  173.6813   12.6679 O   0  0  0  0  0  0
  192.2847  176.5573   11.5065 O   0  5  0  0  0  0
  189.6298  172.5159   17.6459 N   0  0  0  0  0  0
  192.5536  174.4708   12.7762 O   0  0  0  0  0  0
  194.5050  175.4058   11.5895 O   0  0  0  0  0  0
  189.5202  171.1958   18.0017 C   0  0  0  0  0  0
  188.3295  170.4875   18.1122 C   0  0  0  0  0  0
  187.0915  171.1753   17.8455 C   0  0  0  0  0  0
  185.9147  170.6689   17.9168 N   0  0  0  0  0  0
  188.5666  169.1928   18.4593 N   0  0  0  0  0  0
  189.9029  169.1371   18.5501 C   0  0  0  0  0  0
  190.5081  170.3146   18.2548 N   0  0  0  0  0  0
  1  4  1  0  0  0
  1 13  1  0  0  0
  1 16  2  0  0  0
  1 19  1  0  0  0
  2 14  1  0  0  0
  2 17  1  0  0  0
  2 19  1  0  0  0
  2 20  2  0  0  0
  3  4  1  0  0  0
  3  5  1  0  0  0
  5  6  1  0  0  0
  5  7  1  0  0  0
  6 11  1  0  0  0
  7  8  1  0  0  0
  7  9  1  0  0  0
  9 10  1  0  0  0
  9 11  1  0  0  0
 11 27  1  0  0  0
 12 15  4  0  0  0
 12 23  4  0  0  0
 15 18  4  0  0  0
 18 21  4  0  0  0
 21 22  4  0  0  0
 21 27  4  0  0  0
 22 23  4  0  0  0
 22 25  4  0  0  0
 23 24  1  0  0  0
 25 26  4  0  0  0
 26 27  4  0  0  0
M  END
>  <CHROM.1>
-53.91565613,-134.37476821,60.19853555,-177.13392496,-90.90823515,-8.05719541
191.29292746,172.62121643,15.60212612,1.12126502,0.22220285,-0.73157289

>  <Name>
obj01

>  <RI>
1.1303e+09

>  <Rbt.Current_Directory>
/home/ale/miniconda3/envs/pymol37/lib/python3.7/site-packages/pmg_tk/startup/DockingPie1/lib/docking_program_main/tmp/RxDock_tmp

>  <Rbt.Executable>
rbdock/0.1.0

>  <Rbt.Library>
librxdock.so/0.1.0

>  <Rbt.Parameter_File>
/home/ale/miniconda3/envs/pymol37/share/rxdock-2013.1.1_148c5bd1-1/data/scripts/dock.prm

>  <Rbt.Receptor>
prm_file0

>  <SCORE>
-15.9799

>  <SCORE.INTER>
-14.2504

>  <SCORE.INTER.CONST>
1

>  <SCORE.INTER.POLAR>
-2.65772

>  <SCORE.INTER.REPUL>
0.651275

>  <SCORE.INTER.ROT>
6

>  <SCORE.INTER.VDW>
-19.8706

>  <SCORE.INTER.norm>
-0.527794

>  <SCORE.INTRA>
-1.7295

>  <SCORE.INTRA.DIHEDRAL>
-5.71313

>  <SCORE.INTRA.DIHEDRAL.0>
11.5965

>  <SCORE.INTRA.POLAR>
0

>  <SCORE.INTRA.POLAR.0>
0

>  <SCORE.INTRA.REPUL>
0

>  <SCORE.INTRA.REPUL.0>
0

>  <SCORE.INTRA.VDW>
1.12707

>  <SCORE.INTRA.VDW.0>
-4.45802

>  <SCORE.INTRA.norm>
-0.0640554

>  <SCORE.RESTR>
0

>  <SCORE.RESTR.CAVITY>
0

>  <SCORE.RESTR.norm>
0

>  <SCORE.SYSTEM>
0

>  <SCORE.SYSTEM.CONST>
0

>  <SCORE.SYSTEM.DIHEDRAL>
0

>  <SCORE.SYSTEM.norm>
0

>  <SCORE.heavy>
27

>  <SCORE.norm>
-0.591849

>  <pdb_header>
CRYST1   59.630   81.720   83.050  90.00  90.00  90.00 P 21 21 21    4

$$$$
