obj01
  RxDock  02182319223D
librxdock.so/0.1.0
 27 29  0  0  0  0  0  0  0  0999 V2000
  194.4621  173.2304   13.8926 P   0  0  0  0  0  0
  192.2672  174.9536   13.0473 P   0  0  0  0  0  0
  193.3713  173.4530   16.3008 C   0  0  0  0  0  0
  194.5308  173.6339   15.4193 O   0  0  0  0  0  0
  193.2628  172.1355   17.1243 C   0  0  0  0  0  0
  192.2242  172.2412   18.1184 O   0  0  0  0  0  0
  192.8980  170.8215   16.3900 C   0  0  0  0  0  0
  194.0732  170.3195   15.7644 O   0  0  0  0  0  0
  192.3586  169.9662   17.5352 C   0  0  0  0  0  0
  193.4160  169.3354   18.2972 O   0  0  0  0  0  0
  191.6197  170.9732   18.4161 C   0  0  0  0  0  0
  186.7328  169.7408   19.7054 N   0  0  0  0  0  0
  194.5636  171.7407   13.9425 O   0  5  0  0  0  0
  192.7911  175.4689   11.7834 O   0  0  0  0  0  0
  187.9262  169.3695   20.3098 C   0  0  0  0  0  0
  195.5041  173.9045   13.0722 O   0  0  0  0  0  0
  192.4866  175.8277   14.2052 O   0  5  0  0  0  0
  189.1119  169.7605   19.8686 N   0  0  0  0  0  0
  193.0570  173.6150   13.3018 O   0  0  0  0  0  0
  190.8038  174.5305   12.8833 O   0  0  0  0  0  0
  189.0950  170.5437   18.7427 C   0  0  0  0  0  0
  187.9531  170.9666   18.0727 C   0  0  0  0  0  0
  186.6669  170.5548   18.5758 C   0  0  0  0  0  0
  185.5266  170.8482   18.0661 N   0  0  0  0  0  0
  188.2785  171.7508   17.0086 N   0  0  0  0  0  0
  189.6175  171.7930   17.0540 C   0  0  0  0  0  0
  190.1389  171.1021   18.0984 N   0  0  0  0  0  0
  1  4  1  0  0  0
  1 13  1  0  0  0
  1 16  2  0  0  0
  1 19  1  0  0  0
  2 14  1  0  0  0
  2 17  1  0  0  0
  2 19  1  0  0  0
  2 20  2  0  0  0
  3  4  1  0  0  0
  3  5  1  0  0  0
  5  6  1  0  0  0
  5  7  1  0  0  0
  6 11  1  0  0  0
  7  8  1  0  0  0
  7  9  1  0  0  0
  9 10  1  0  0  0
  9 11  1  0  0  0
 11 27  1  0  0  0
 12 15  4  0  0  0
 12 23  4  0  0  0
 15 18  4  0  0  0
 18 21  4  0  0  0
 21 22  4  0  0  0
 21 27  4  0  0  0
 22 23  4  0  0  0
 22 25  4  0  0  0
 23 24  1  0  0  0
 25 26  4  0  0  0
 26 27  4  0  0  0
M  END
>  <CHROM.1>
-76.02372094,64.49212785,81.86982761,93.53429689,168.54474049,-144.36200260
191.61406893,172.21492444,16.09325623,-0.87416969,-0.16061780,2.31249330

>  <Name>
obj01

>  <RI>
-2.09461e+09

>  <Rbt.Current_Directory>
/home/ale/miniconda3/envs/pymol37/lib/python3.7/site-packages/pmg_tk/startup/DockingPie1/lib/docking_program_main/tmp/RxDock_tmp

>  <Rbt.Executable>
rbdock/0.1.0

>  <Rbt.Library>
librxdock.so/0.1.0

>  <Rbt.Parameter_File>
/home/ale/miniconda3/envs/pymol37/share/rxdock-2013.1.1_148c5bd1-1/data/scripts/dock.prm

>  <Rbt.Receptor>
prm_file0

>  <SCORE>
-7.14671

>  <SCORE.INTER>
-6.85795

>  <SCORE.INTER.CONST>
1

>  <SCORE.INTER.POLAR>
-0.907264

>  <SCORE.INTER.REPUL>
0.630919

>  <SCORE.INTER.ROT>
6

>  <SCORE.INTER.VDW>
-18.3278

>  <SCORE.INTER.norm>
-0.253998

>  <SCORE.INTRA>
-0.487462

>  <SCORE.INTRA.DIHEDRAL>
-4.57303

>  <SCORE.INTRA.DIHEDRAL.0>
11.5965

>  <SCORE.INTRA.POLAR>
0

>  <SCORE.INTRA.POLAR.0>
0

>  <SCORE.INTRA.REPUL>
0

>  <SCORE.INTRA.REPUL.0>
0

>  <SCORE.INTRA.VDW>
1.79905

>  <SCORE.INTRA.VDW.0>
-4.45802

>  <SCORE.INTRA.norm>
-0.0180541

>  <SCORE.RESTR>
0.198698

>  <SCORE.RESTR.CAVITY>
0.198698

>  <SCORE.RESTR.norm>
0.00735918

>  <SCORE.SYSTEM>
0

>  <SCORE.SYSTEM.CONST>
0

>  <SCORE.SYSTEM.DIHEDRAL>
0

>  <SCORE.SYSTEM.norm>
0

>  <SCORE.heavy>
27

>  <SCORE.norm>
-0.264693

>  <pdb_header>
CRYST1   59.630   81.720   83.050  90.00  90.00  90.00 P 21 21 21    4

$$$$
